FoamFile
{
    version     2.0;
    format      ascii;
    class       dictionary;
    location    "system";
    object      preciceDict;
}
// * * * * * * * * * * * * * * * * * * * * * * * * * * * * * * * * * * * * * //

preciceConfig   "../preCICE.xml";

participant     Fluid_Solver;

modules         (FSI);

interfaces
{

    Interface1
    {
        mesh              Fluid_Nodes;

        patches           (bottomWall);
        locations         faceNodes;

        readData
        (
            Displacement
        );

        writeData
        (
        );
    };

    Interface2
    {

        mesh              Fluid_CellCenters;

        patches           (bottomWall);
        locations         faceCenters;

        readData
        (
        );

        writeData
        (
            Stress
        );
    };

};

FSI
{
    rho     rho     [1 -3 0 0 0 0 0]    1.0;
}

// ************************************************************************* //
